LINES:
4,5 500 -700.0 5.0
FILEPROFILE:
syn_profile.bin
FILEMODEL:
test_atmos.bin
MODE:
inversion
HYDROSTATIC:
yes
STOKES SETUP:
STKI
STKQ
STKU
STKV
INVERSION SETUP:
TEM
VLOS
VERTICAL REGULARIZATION TYPE:
TEM 1
VLOS 1
VERTICAL REGULARIZATION NORM:
TEM 0.01
VLOS 0.1
MISC SETUP:
DATAPATH ../test_syn1/out_dir/
MODPATH ../../default/
SLDPATH ../../default/
OUTPATH ./out_dir/
LINEAR_SOLVER 2
PERTURBATION_TYPE 2
END:
