FILEMODEL:
test_atmos.bin
MODE:
hydrostatic
HYDROSTATIC:
yes
MISC SETUP:
MODPATH ../../default/
SLDPATH ../../default/
END:
