LINES:
72 500 -700.0 5.0
FILEPROFILE:
syn_profile.bin
FILEMODEL:
test_atmos.bin
MODE:
synthesis
HYDROSTATIC:
yes
MISC SETUP:
MODPATH ../../default/
SLDPATH ../../default/
OUTPATH ./out_dir/
END:
4,5 500 -700.0 5.0
